Version 4
SHEET 1 880 680
WIRE 112 48 48 48
WIRE 288 48 192 48
WIRE 128 112 96 112
WIRE 48 128 48 48
WIRE 96 128 96 112
WIRE 96 128 48 128
WIRE 288 128 288 48
WIRE 288 128 240 128
WIRE 352 128 288 128
WIRE 96 144 96 128
WIRE 128 144 96 144
WIRE 48 176 48 128
FLAG 48 240 0
SYMBOL 74HCT\\74hct132 176 64 R0
SYMATTR InstName U1
SYMBOL res 208 32 R90
WINDOW 0 0 56 VBottom 2
WINDOW 3 32 56 VTop 2
SYMATTR InstName R1
SYMATTR Value {R}
SYMBOL cap 32 176 R0
SYMATTR InstName C1
SYMATTR Value 10n
TEXT 28 264 Left 2 !.tran 0 0.01 0 0.1u
TEXT 64 -32 Left 2 !.lib 74hct.lib
TEXT -88 0 Left 2 !.step param R list 470 1000 2000
