Version 4
SHEET 1 2392 680
WIRE 720 48 624 48
WIRE 736 48 720 48
WIRE 2192 64 2064 64
WIRE 720 80 704 80
WIRE 1952 160 1952 64
WIRE 1952 160 672 160
WIRE 544 176 544 112
WIRE 624 176 624 48
WIRE 624 176 544 176
WIRE -16 240 -16 112
WIRE 544 240 544 176
WIRE 544 240 -16 240
WIRE 704 288 704 80
WIRE 2064 288 704 288
WIRE 672 336 672 160
WIRE 832 336 672 336
WIRE 2064 352 2064 288
WIRE 2304 352 2176 352
WIRE 624 368 624 176
WIRE 720 368 624 368
FLAG 2192 144 0
FLAG 2304 432 0
SYMBOL 74HCT\\74hct04 32 48 R0
SYMATTR InstName U1
SYMBOL 74HCT\\74hct04 144 48 R0
SYMATTR InstName U2
SYMBOL 74HCT\\74hct04 256 48 R0
SYMATTR InstName U3
SYMBOL 74HCT\\74hct04 368 48 R0
SYMATTR InstName U4
SYMBOL 74HCT\\74hct04 480 48 R0
SYMATTR InstName U5
SYMBOL 74HCT\\74hct02 768 0 R0
SYMATTR InstName U6
SYMBOL 74HCT\\74hct04 768 304 R0
SYMATTR InstName U8
SYMBOL 74HCT\\74hct04 880 0 R0
SYMATTR InstName U9
SYMBOL 74HCT\\74hct04 992 0 R0
SYMATTR InstName U10
SYMBOL 74HCT\\74hct04 1104 0 R0
SYMATTR InstName U11
SYMBOL 74HCT\\74hct04 1216 0 R0
SYMATTR InstName U12
SYMBOL 74HCT\\74hct04 1328 0 R0
SYMATTR InstName U13
SYMBOL 74HCT\\74hct04 1440 0 R0
SYMATTR InstName U14
SYMBOL 74HCT\\74hct04 1552 0 R0
SYMATTR InstName U15
SYMBOL 74HCT\\74hct04 1664 0 R0
SYMATTR InstName U16
SYMBOL 74HCT\\74hct04 1776 0 R0
SYMATTR InstName U17
SYMBOL 74HCT\\74hct02 880 288 R0
SYMATTR InstName U18
SYMBOL 74HCT\\74hct04 992 288 R0
SYMATTR InstName U19
SYMBOL 74HCT\\74hct04 1104 288 R0
SYMATTR InstName U20
SYMBOL 74HCT\\74hct04 1216 288 R0
SYMATTR InstName U21
SYMBOL 74HCT\\74hct04 1328 288 R0
SYMATTR InstName U22
SYMBOL 74HCT\\74hct04 1440 288 R0
SYMATTR InstName U23
SYMBOL 74HCT\\74hct04 1552 288 R0
SYMATTR InstName U24
SYMBOL 74HCT\\74hct04 1664 288 R0
SYMATTR InstName U25
SYMBOL 74HCT\\74hct04 1776 288 R0
SYMATTR InstName U26
SYMBOL 74HCT\\74hct04 1888 288 R0
SYMATTR InstName U27
SYMBOL 74HCT\\74hct04 2000 0 R0
SYMATTR InstName U7
SYMBOL 74HCT\\74hct04 2112 288 R0
SYMATTR InstName U28
SYMBOL 74HCT\\74hct04 1888 0 R0
SYMATTR InstName U29
SYMBOL 74HCT\\74hct04 2000 288 R0
SYMATTR InstName U30
SYMBOL res 2176 48 R0
SYMATTR InstName R1
SYMATTR Value 1000k
SYMBOL res 2288 336 R0
SYMATTR InstName R2
SYMATTR Value 1Meg
TEXT 128 40 Left 2 !.lib 74hct.lib
TEXT -24 248 Left 2 !.tran 0 0.01 0 0.1u
