Version 4
SHEET 1 880 680
WIRE -16 240 -16 112
WIRE 544 240 544 112
WIRE 544 240 -16 240
SYMBOL 74HCT\\74hct04 32 48 R0
SYMATTR InstName U1
SYMBOL 74HCT\\74hct04 144 48 R0
SYMATTR InstName U2
SYMBOL 74HCT\\74hct04 256 48 R0
SYMATTR InstName U3
SYMBOL 74HCT\\74hct04 368 48 R0
SYMATTR InstName U4
SYMBOL 74HCT\\74hct04 480 48 R0
SYMATTR InstName U5
TEXT 128 40 Left 2 !.lib 74hct.lib
TEXT -22 246 Left 2 !.tran 0 0.01 0 0.1u
